0FV_3V1X_A
     RDKit          3D

 36 35  0  0  0  0  0  0  0  0999 V2000
  -27.3150   34.7800    3.4400 C   0  0  0  0  0  0  0  0  0  0  0  0
  -28.7580   34.8370    3.3940 O   0  0  0  0  0  0  0  0  0  0  0  0
  -26.8290   34.8020    2.0360 C   0  0  0  0  0  0  0  0  0  0  0  0
  -26.3400   35.9900    1.5910 F   0  0  0  0  0  0  0  0  0  0  0  0
  -26.9170   33.7400    1.2620 C   0  0  0  0  0  0  0  0  0  0  0  0
  -27.4800   32.4460    1.7620 C   0  0  0  0  0  0  0  0  0  0  0  0
  -26.4250   33.8320   -0.1510 C   0  0  0  0  0  0  0  0  0  0  0  0
  -25.1700   32.9980   -0.2980 C   0  0  0  0  0  0  0  0  0  0  0  0
  -23.9350   33.7570    0.0920 C   0  0  0  0  0  0  0  0  0  0  0  0
  -22.7380   33.4580   -0.3980 C   0  0  0  0  0  0  0  0  0  0  0  0
  -21.5420   34.2450    0.0480 C   0  0  0  0  0  0  0  0  0  0  0  0
  -22.4970   32.3850   -1.4230 C   0  0  0  0  0  0  0  0  0  0  0  0
  -29.2190   36.4020    3.3690 P   0  0  1  0  0  0  0  0  0  0  0  0
  -29.3460   36.8630    1.9870 O   0  0  0  0  0  0  0  0  0  0  0  0
  -30.6410   36.4770    4.0640 O   0  0  0  0  0  0  0  0  0  0  0  0
  -28.1120   37.3520    4.0920 O   0  0  0  0  0  0  0  0  0  0  0  0
  -28.3950   38.2460    5.4170 P   0  0  0  0  0  0  0  0  0  0  0  0
  -29.3190   37.8020    6.4850 O   0  0  0  0  0  0  0  0  0  0  0  0
  -27.0350   38.2740    6.2480 O   0  0  0  0  0  0  0  0  0  0  0  0
  -28.7640   39.7220    4.9330 O   0  0  0  0  0  0  0  0  0  0  0  0
  -27.0197   33.9381    3.8916 H   0  0  0  0  0  0  0  0  0  0  0  0
  -26.9567   35.5691    3.9389 H   0  0  0  0  0  0  0  0  0  0  0  0
  -27.4603   31.7679    1.0273 H   0  0  0  0  0  0  0  0  0  0  0  0
  -26.9318   32.1194    2.5320 H   0  0  0  0  0  0  0  0  0  0  0  0
  -28.4240   32.5865    2.0607 H   0  0  0  0  0  0  0  0  0  0  0  0
  -26.2205   34.7855   -0.3723 H   0  0  0  0  0  0  0  0  0  0  0  0
  -27.1289   33.4891   -0.7730 H   0  0  0  0  0  0  0  0  0  0  0  0
  -25.0838   32.7114   -1.2522 H   0  0  0  0  0  0  0  0  0  0  0  0
  -25.2497   32.1906    0.2866 H   0  0  0  0  0  0  0  0  0  0  0  0
  -24.0166   34.5125    0.7421 H   0  0  0  0  0  0  0  0  0  0  0  0
  -20.7242   33.8972   -0.4105 H   0  0  0  0  0  0  0  0  0  0  0  0
  -21.6709   35.2087   -0.1860 H   0  0  0  0  0  0  0  0  0  0  0  0
  -21.4333   34.1540    1.0379 H   0  0  0  0  0  0  0  0  0  0  0  0
  -21.5213   32.3427   -1.6382 H   0  0  0  0  0  0  0  0  0  0  0  0
  -22.7966   31.5031   -1.0591 H   0  0  0  0  0  0  0  0  0  0  0  0
  -23.0127   32.5955   -2.2535 H   0  0  0  0  0  0  0  0  0  0  0  0
  1  2  1  0
  1  3  1  0
  2 13  1  0
  3  4  1  0
  3  5  2  0
  5  6  1  0
  5  7  1  0
  7  8  1  0
  8  9  1  0
  9 10  2  0
 10 11  1  0
 10 12  1  0
 13 14  2  0
 13 15  1  1
 13 16  1  0
 16 17  1  0
 17 18  2  0
 17 19  1  0
 17 20  1  0
  1 21  1  0
  1 22  1  0
  6 23  1  0
  6 24  1  0
  6 25  1  0
  7 26  1  0
  7 27  1  0
  8 28  1  0
  8 29  1  0
  9 30  1  0
 11 31  1  0
 11 32  1  0
 11 33  1  0
 12 34  1  0
 12 35  1  0
 12 36  1  0
M  CHG  3  15  -1  19  -1  20  -1
M  END
