P4G_2GYU_A
     RDKit          3D

 29 28  0  0  0  0  0  0  0  0999 V2000
    8.6970    1.8260  -15.8020 C   0  0  0  0  0  0  0  0  0  0  0  0
    9.8600    2.8150  -15.9330 C   0  0  0  0  0  0  0  0  0  0  0  0
   10.6860    2.8220  -14.7560 O   0  0  0  0  0  0  0  0  0  0  0  0
   11.3720    4.0720  -14.5570 C   0  0  0  0  0  0  0  0  0  0  0  0
   11.9470    4.1930  -13.1370 C   0  0  0  0  0  0  0  0  0  0  0  0
   11.2850    3.3130  -12.2170 O   0  0  0  0  0  0  0  0  0  0  0  0
   11.2580    3.8090  -10.8820 C   0  0  0  0  0  0  0  0  0  0  0  0
    9.8350    3.8150  -10.3330 C   0  0  0  0  0  0  0  0  0  0  0  0
    9.5020    5.1430   -9.9150 O   0  0  0  0  0  0  0  0  0  0  0  0
    8.1120    5.3070   -9.6010 C   0  0  0  0  0  0  0  0  0  0  0  0
    7.7090    6.7850   -9.6780 C   0  0  0  0  0  0  0  0  0  0  0  0
    8.1455    1.8476  -16.6359 H   0  0  0  0  0  0  0  0  0  0  0  0
    9.0578    0.9035  -15.6648 H   0  0  0  0  0  0  0  0  0  0  0  0
    8.1287    2.0814  -15.0198 H   0  0  0  0  0  0  0  0  0  0  0  0
    9.4903    3.7332  -16.0752 H   0  0  0  0  0  0  0  0  0  0  0  0
   10.4194    2.5553  -16.7202 H   0  0  0  0  0  0  0  0  0  0  0  0
   10.7280    4.8216  -14.7096 H   0  0  0  0  0  0  0  0  0  0  0  0
   12.1217    4.1373  -15.2156 H   0  0  0  0  0  0  0  0  0  0  0  0
   11.8345    5.1352  -12.8215 H   0  0  0  0  0  0  0  0  0  0  0  0
   12.9200    3.9635  -13.1612 H   0  0  0  0  0  0  0  0  0  0  0  0
   11.6168    4.7424  -10.8721 H   0  0  0  0  0  0  0  0  0  0  0  0
   11.8294    3.2260  -10.3044 H   0  0  0  0  0  0  0  0  0  0  0  0
    9.7742    3.1928   -9.5525 H   0  0  0  0  0  0  0  0  0  0  0  0
    9.1994    3.5187  -11.0459 H   0  0  0  0  0  0  0  0  0  0  0  0
    7.9424    4.9684   -8.6755 H   0  0  0  0  0  0  0  0  0  0  0  0
    7.5642    4.7831  -10.2532 H   0  0  0  0  0  0  0  0  0  0  0  0
    6.7383    6.8778   -9.4562 H   0  0  0  0  0  0  0  0  0  0  0  0
    8.2521    7.3130   -9.0251 H   0  0  0  0  0  0  0  0  0  0  0  0
    7.8738    7.1277  -10.6029 H   0  0  0  0  0  0  0  0  0  0  0  0
  1  2  1  0
  2  3  1  0
  3  4  1  0
  4  5  1  0
  5  6  1  0
  6  7  1  0
  7  8  1  0
  8  9  1  0
  9 10  1  0
 10 11  1  0
  1 12  1  0
  1 13  1  0
  1 14  1  0
  2 15  1  0
  2 16  1  0
  4 17  1  0
  4 18  1  0
  5 19  1  0
  5 20  1  0
  7 21  1  0
  7 22  1  0
  8 23  1  0
  8 24  1  0
 10 25  1  0
 10 26  1  0
 11 27  1  0
 11 28  1  0
 11 29  1  0
M  END
