OAF_3M0J_A
     RDKit          3D

 14 13  0  0  0  0  0  0  0  0999 V2000
   16.2010    7.7480  -23.5100 O   0  0  0  0  0  0  0  0  0  0  0  0
   15.5650    7.2290  -22.6460 C   0  0  0  0  0  0  0  0  0  0  0  0
   14.2190    6.9470  -22.8390 O   0  0  0  0  0  0  0  0  0  0  0  0
   16.1370    7.0650  -21.2350 C   0  0  0  0  0  0  0  0  0  0  0  0
   17.4890    6.6590  -21.3030 O   0  0  0  0  0  0  0  0  0  0  0  0
   15.4240    6.0690  -20.5540 O   0  0  0  0  0  0  0  0  0  0  0  0
   15.9880    8.4470  -20.5490 C   0  0  0  0  0  0  0  0  0  0  0  0
   16.9850    9.2800  -20.9810 F   0  0  0  0  0  0  0  0  0  0  0  0
   14.7880    9.0370  -20.8230 F   0  0  0  0  0  0  0  0  0  0  0  0
   16.0570    8.2640  -19.0400 C   0  0  0  0  0  0  0  0  0  0  0  0
   15.0600    8.0940  -18.4090 O   0  0  0  0  0  0  0  0  0  0  0  0
   17.2960    8.4520  -18.4310 O   0  0  0  0  0  0  0  0  0  0  0  0
   17.9045    7.0220  -22.1370 H   0  0  0  0  0  0  0  0  0  0  0  0
   15.8573    5.1817  -20.7120 H   0  0  0  0  0  0  0  0  0  0  0  0
  1  2  2  0
  2  3  1  0
  2  4  1  0
  4  5  1  0
  4  6  1  0
  4  7  1  0
  7  8  1  0
  7  9  1  0
  7 10  1  0
 10 11  2  0
 10 12  1  0
  6 14  1  0
  5 13  1  0
M  CHG  2   3  -1  12  -1
M  END
