3K0_4W9Y_A
     RDKit          3D

 22 21  0  0  0  0  0  0  0  0999 V2000
   13.9320   48.6930   40.4480 O   0  0  0  0  0  0  0  0  0  0  0  0
   13.9410   47.4660   40.2770 C   0  0  0  0  0  0  0  0  0  0  0  0
   13.1580   46.8620   39.5080 O   0  0  0  0  0  0  0  0  0  0  0  0
   15.0470   46.6840   41.0080 C   0  0  0  0  0  0  0  0  0  0  0  0
   14.8510   45.1600   41.0250 C   0  0  0  0  0  0  0  0  0  0  0  0
   16.1190   44.4070   41.5150 C   0  0  1  0  0  0  0  0  0  0  0  0
   17.2210   44.6430   40.4310 C   0  0  0  0  0  0  0  0  0  0  0  0
   18.0810   45.5470   40.5920 O   0  0  0  0  0  0  0  0  0  0  0  0
   17.1230   43.9230   39.4090 O   0  0  0  0  0  0  0  0  0  0  0  0
   16.5630   44.9290   42.8550 N   0  0  0  0  0  0  0  0  0  0  0  0
   17.6800   43.9690   43.6330 S   0  0  0  0  0  0  0  0  0  0  0  0
   18.2850   44.7960   44.7080 O   0  0  0  0  0  0  0  0  0  0  0  0
   18.7250   43.4880   42.6440 O   0  0  0  0  0  0  0  0  0  0  0  0
   16.8780   42.7170   44.1500 N   0  0  0  0  0  0  0  0  0  0  0  0
   15.0814   47.0043   41.9547 H   0  0  0  0  0  0  0  0  0  0  0  0
   15.9178   46.8812   40.5575 H   0  0  0  0  0  0  0  0  0  0  0  0
   14.6331   44.8536   40.0984 H   0  0  0  0  0  0  0  0  0  0  0  0
   14.0905   44.9405   41.6361 H   0  0  0  0  0  0  0  0  0  0  0  0
   15.9218   43.4291   41.5850 H   0  0  0  0  0  0  0  0  0  0  0  0
   15.7572   45.0093   43.4418 H   0  0  0  0  0  0  0  0  0  0  0  0
   15.9336   42.9828   44.3435 H   0  0  0  0  0  0  0  0  0  0  0  0
   16.8866   42.0032   43.4497 H   0  0  0  0  0  0  0  0  0  0  0  0
  1  2  2  0
  2  3  1  0
  2  4  1  0
  4  5  1  0
  5  6  1  0
  6  7  1  0
  6 10  1  0
  7  8  2  0
  7  9  1  0
 10 11  1  0
 11 12  2  0
 11 13  2  0
 11 14  1  0
 14 22  1  0
  4 15  1  0
  4 16  1  0
  5 17  1  0
  5 18  1  0
  6 19  1  1
 14 21  1  0
 10 20  1  0
M  CHG  2   3  -1   9  -1
M  END
